Circuit: * C:\Users\Ale\Desktop\Simulaciones\FlyBack_Open_Loop.asc

Direct Newton iteration for .op point succeeded.

Date: Tue May 02 01:08:34 2023
Total elapsed time: 42.685 seconds.

tnom = 27
temp = 27
method = modified trap
totiter = 16291942
traniter = 16291934
tranpoints = 4451924
accept = 3086031
rejected = 1365893
matrix size = 22
fillins = 13
solver = Normal
Matrix Compiler1: 1.72 KB object code size  0.6/0.2/[0.1]
Matrix Compiler2: 1.87 KB object code size  0.2/0.3/[0.2]

