Circuit: * C:\Users\User\Repos\E4-TP2-G2\Simulaciones\SG3525_conection.asc

WARNING: Less than two connections to node pwm.  This node is used by r:u1:8.
WARNING: Less than two connections to node vosc.  This node is used by r:u1:18.
WARNING: Less than two connections to node vg.  This node is used by rg.
Direct Newton iteration for .op point succeeded.
Ignoring empty pin current: Ix(u1:gnd)
Ignoring empty pin current: Ix(u1:gnd)

Date: Fri May  5 03:47:42 2023
Total elapsed time: 0.122 seconds.

tnom = 27
temp = 27
method = modified trap
totiter = 7869
traniter = 7845
tranpoints = 2555
accept = 1963
rejected = 592
matrix size = 55
fillins = 0
solver = Normal
Avg thread counts: 1.1/1.3/1.3/1.1
Matrix Compiler1: 1.98 KB object code size  1.0/1.1/[0.6]
Matrix Compiler2: 3.34 KB object code size  0.8/1.1/[0.4]

