Circuit: * C:\Users\User\Repos\E4-TP2-G2\Simulaciones\SG3525_conection.asc

WARNING: Less than two connections to node vosc.  This node is used by r:u1:18.
WARNING: Less than two connections to node vg.  This node is used by rg.
Direct Newton iteration failed to find .op point.  (Use ".option noopiter" to skip.)
Starting Gmin stepping
Gmin = 10
Gmin = 1.07374
Gmin = 0.115292
Gmin = 0.0123794
Gmin = 0.00132923
Gmin = 0.000142725
Gmin = 1.5325e-05
Gmin = 1.6455e-06
Gmin = 1.76685e-07
Gmin = 1.89714e-08
Gmin = 2.03704e-09
Gmin = 2.18725e-10
Gmin = 2.34854e-11
Gmin = 2.52173e-12
Gmin = 2.70769e-13
Gmin = 0
Gmin stepping succeeded in finding the operating point.

Ignoring empty pin current: Ix(u1:gnd)
Ignoring empty pin current: Ix(u1:gnd)

Date: Fri May  5 18:57:20 2023
Total elapsed time: 0.224 seconds.

tnom = 27
temp = 27
method = modified trap
totiter = 9373
traniter = 8957
tranpoints = 2987
accept = 2248
rejected = 739
matrix size = 55
fillins = 1
solver = Normal
Avg thread counts: 1.1/1.2/1.2/1.1
Matrix Compiler1: off  [0.5]/1.0/0.7
Matrix Compiler2: off  [0.5]/0.6/0.5

